@<TRIPOS>MOLECULE
*****
 62 67 0 0 0
SMALL
GASTEIGER

@<TRIPOS>ATOM
      1 C          -0.4465    1.7115    1.8085 C.ar    1  UNL1        0.0000
      2 C          -0.5832    1.7031    0.4010 C.ar    1  UNL1        0.0000
      3 C           0.5832    1.7031   -0.4010 C.ar    1  UNL1        0.0000
      4 C           1.8587    1.6913    0.2253 C.ar    1  UNL1        0.0000
      5 C           0.4465    1.7115   -1.8085 C.ar    1  UNL1        0.0000
      6 H           1.2891    1.7265   -2.4717 H       1  UNL1        0.0000
      7 C          -0.7880    1.7172   -2.4458 C.ar    1  UNL1        0.0000
      8 C          -0.7679    1.7266   -3.9749 C.3     1  UNL1        0.0000
      9 C          -1.9607    1.7057   -1.6530 C.ar    1  UNL1        0.0000
     10 C          -3.2439    1.6901   -2.2369 C.ar    1  UNL1        0.0000
     11 C          -1.8587    1.6913   -0.2253 C.ar    1  UNL1        0.0000
     12 C           1.9607    1.7057    1.6530 C.ar    1  UNL1        0.0000
     13 C           0.7880    1.7172    2.4458 C.ar    1  UNL1        0.0000
     14 C           3.0515    1.6517   -0.5340 C.ar    1  UNL1        0.0000
     15 C           3.2439    1.6901    2.2369 C.ar    1  UNL1        0.0000
     16 C           0.7679    1.7266    3.9749 C.3     1  UNL1        0.0000
     17 H          -1.7557    1.8915   -4.4187 H       1  UNL1        0.0000
     18 C          -0.2623    0.3850   -4.5325 C.3     1  UNL1        0.0000
     19 H          -0.1271    2.5641   -4.3306 H       1  UNL1        0.0000
     20 H           1.7557    1.8915    4.4187 H       1  UNL1        0.0000
     21 C           0.2623    0.3850    4.5325 C.3     1  UNL1        0.0000
     22 H           0.1271    2.5641    4.3306 H       1  UNL1        0.0000
     23 H          -0.8990   -0.4206   -4.1038 H       1  UNL1        0.0000
     24 H           0.7868    0.2084   -4.2104 H       1  UNL1        0.0000
     25 H           0.8990   -0.4206    4.1038 H       1  UNL1        0.0000
     26 H          -0.7868    0.2084    4.2104 H       1  UNL1        0.0000
     27 C          -0.3256    0.2719   -6.0443 C.2     1  UNL1        0.0000
     28 C          -0.8495    1.3602   -6.9276 C.2     1  UNL1        0.0000
     29 H          -1.2062    2.3043   -6.5270 H       1  UNL1        0.0000
     30 C          -0.8830    1.1772   -8.2533 C.2     1  UNL1        0.0000
     31 H          -1.2630    1.9616   -8.9027 H       1  UNL1        0.0000
     32 C          -0.4039   -0.0969   -8.8226 C.2     1  UNL1        0.0000
     33 H          -0.4309   -0.2464   -9.8951 H       1  UNL1        0.0000
     34 N           0.0445   -1.0286   -8.0434 N.2     1  UNL1        0.0000
     35 C           0.0963   -0.8688   -6.6285 C.2     1  UNL1        0.0000
     36 H           0.4781   -1.6829   -6.0147 H       1  UNL1        0.0000
     37 C           0.3256    0.2719    6.0443 C.2     1  UNL1        0.0000
     38 C           0.8495    1.3602    6.9276 C.2     1  UNL1        0.0000
     39 H           1.2062    2.3043    6.5270 H       1  UNL1        0.0000
     40 C           0.8830    1.1772    8.2533 C.2     1  UNL1        0.0000
     41 H           1.2630    1.9616    8.9027 H       1  UNL1        0.0000
     42 C           0.4039   -0.0969    8.8226 C.2     1  UNL1        0.0000
     43 H           0.4309   -0.2464    9.8951 H       1  UNL1        0.0000
     44 N          -0.0445   -1.0286    8.0434 N.2     1  UNL1        0.0000
     45 C          -0.0963   -0.8688    6.6285 C.2     1  UNL1        0.0000
     46 H          -0.4781   -1.6829    6.0147 H       1  UNL1        0.0000
47 * 0.6837 -2.7453 -8.8436 Du 1 UNL1 0.0000
48 * -0.6837 -2.7453 8.8436 Du 1 UNL1 0.0000
     49 C          -3.0515    1.6517    0.5340 C.ar    1  UNL1        0.0000
     50 C          -4.3860    1.6521   -1.4543 C.ar    1  UNL1        0.0000
     51 C          -4.2892    1.6293   -0.0763 C.ar    1  UNL1        0.0000
     52 C           4.2892    1.6293    0.0763 C.ar    1  UNL1        0.0000
     53 C           4.3860    1.6521    1.4543 C.ar    1  UNL1        0.0000
     54 H          -1.2891    1.7265    2.4717 H       1  UNL1        0.0000
     55 H          -3.4140    1.6965   -3.2940 H       1  UNL1        0.0000
     56 H           3.0832    1.6252   -1.6051 H       1  UNL1        0.0000
     57 H           3.4140    1.6965    3.2940 H       1  UNL1        0.0000
     58 H          -3.0832    1.6252    1.6051 H       1  UNL1        0.0000
     59 H          -5.3534    1.6341   -1.9280 H       1  UNL1        0.0000
     60 H          -5.1755    1.5911    0.5370 H       1  UNL1        0.0000
     61 H           5.1755    1.5911   -0.5370 H       1  UNL1        0.0000
     62 H           5.3534    1.6341    1.9280 H       1  UNL1        0.0000
@<TRIPOS>BOND
     1     8     7    1
     2    10     9   ar
     3     7     5   ar
     4     9    11   ar
     5     6     5    1
     6     3     2   ar
     7     4    12   ar
     8    13     1   ar
     9     4    14   ar
    10    12    15   ar
    11    13    16    1
    12     8    17    1
    13     8    18    1
    14     8    19    1
    15    16    20    1
    16    16    21    1
    17    16    22    1
    18    18    23    1
    19    18    24    1
    20    21    25    1
    21    21    26    1
    22    33    32    1
    23    32    34    2
    24    32    30    1
    25    31    30    1
    26    34    35    1
    27    30    28    2
    28    35    36    1
    29    35    27    2
    30    28    29    1
    31    28    27    1
    32    18    27    1
    33    43    42    1
    34    42    44    2
    35    42    40    1
    36    41    40    1
    37    44    45    1
    38    40    38    2
    39    45    46    1
    40    45    37    2
    41    38    39    1
    42    38    37    1
    43    21    37    1
    44    34    47    1
    45    44    48    1
    46     2    11   ar
    47     9     7   ar
    48     5     3   ar
    49     4     3   ar
    50    12    13   ar
    51     1     2   ar
    52    11    49   ar
    53    10    50   ar
    54    50    51   ar
    55    51    49   ar
    56    14    52   ar
    57    52    53   ar
    58    53    15   ar
    59     1    54    1
    60    10    55    1
    61    14    56    1
    62    15    57    1
    63    49    58    1
    64    50    59    1
    65    51    60    1
    66    52    61    1
    67    53    62    1
