@<TRIPOS>MOLECULE
*****
 93 108 0 0 0
SMALL
GASTEIGER

@<TRIPOS>ATOM
      1 C           0.7984   -1.2577   -1.8227 C.3     1  UNL1        0.0000
      2 C          -0.6544   -1.2997   -1.3122 C.3     1  UNL1        0.0000
      3 C          -1.4884   -0.0626   -1.8227 C.3     1  UNL1        0.0000
      4 H          -1.1117   -2.2286   -1.7018 H       1  UNL1        0.0000
      5 H          -0.6878   -1.3468   -0.1941 H       1  UNL1        0.0000
      6 C          -0.7984    1.2166   -1.3122 C.3     1  UNL1        0.0000
      7 H          -1.4878   -0.0816   -2.9116 H       1  UNL1        0.0000
      8 H          -1.3741    2.0771   -1.7018 H       1  UNL1        0.0000
      9 H          -0.8225    1.2691   -0.1941 H       1  UNL1        0.0000
     10 C           1.4528    0.0831   -1.3122 C.3     1  UNL1        0.0000
     11 H           2.4859    0.1515   -1.7018 H       1  UNL1        0.0000
     12 H           1.5103    0.0777   -0.1941 H       1  UNL1        0.0000
     13 H           0.8146   -1.2477   -2.9116 H       1  UNL1        0.0000
     14 C           0.6900    1.3203   -1.8227 C.3     1  UNL1        0.0000
     15 H           0.6732    1.3293   -2.9116 H       1  UNL1        0.0000
     16 C           2.9917   -2.2659   -1.3818 C.2     1  UNL1        0.0000
     17 C           3.7598   -2.5916   -0.1510 C.2     1  UNL1        0.0000
     18 H           4.7368   -2.1567   -0.0089 H       1  UNL1        0.0000
     19 C           3.2790   -3.6066    0.5663 C.2     1  UNL1        0.0000
     20 N           2.1706   -4.2665    0.0252 N.pl3   1  UNL1        0.0000
     21 C           1.3312   -3.7712   -0.7960 C.2     1  UNL1        0.0000
     22 C           0.5220   -4.8429   -1.4428 C.ar    1  UNL1        0.0000
     23 C           1.6576   -2.4125   -1.3208 C.2     1  UNL1        0.0000
     24 C          -3.4581   -1.4579   -1.3818 C.2     1  UNL1        0.0000
     25 C          -4.1243   -1.9603   -0.1510 C.2     1  UNL1        0.0000
     26 H          -4.2362   -3.0239   -0.0089 H       1  UNL1        0.0000
     27 C          -4.7629   -1.0364    0.5663 C.2     1  UNL1        0.0000
     28 C          -5.8555   -1.2647    1.5104 C.ar    1  UNL1        0.0000
     29 N          -4.7802    0.2535    0.0252 N.pl3   1  UNL1        0.0000
     30 C          -3.9316    0.7327   -0.7960 C.2     1  UNL1        0.0000
     31 C           0.4665    3.7238   -1.3818 C.2     1  UNL1        0.0000
     32 H          -0.5007    5.1806   -0.0089 H       1  UNL1        0.0000
     33 C           1.4839    4.6430    0.5663 C.2     1  UNL1        0.0000
     34 N           2.6096    4.0130    0.0252 N.pl3   1  UNL1        0.0000
     35 C           2.6004    3.0385   -0.7960 C.2     1  UNL1        0.0000
     36 C           3.9331    2.8735   -1.4428 C.ar    1  UNL1        0.0000
     37 C           1.2605    2.6418   -1.3208 C.2     1  UNL1        0.0000
     38 C          -2.9181   -0.2292   -1.3208 C.2     1  UNL1        0.0000
     39 C           0.3645    4.5519   -0.1510 C.2     1  UNL1        0.0000
     40 C           4.0230   -4.4387    1.5104 C.2     1  UNL1        0.0000
     41 C          -4.4551    1.9694   -1.4428 C.2     1  UNL1        0.0000
     42 C           1.8325    5.7034    1.5104 C.2     1  UNL1        0.0000
     43 C          -4.0094    2.7641   -2.4521 C.2     1  UNL1        0.0000
     44 C          -4.9222    3.8239   -2.5114 C.2     1  UNL1        0.0000
     45 C          -5.9631    3.5412   -1.6428 C.3     1  UNL1        0.0000
     46 N          -5.6625    2.3942   -1.0502 N.pl3   1  UNL1        0.0000
     47 N          -6.8228   -0.3460    1.4398 N.ar    1  UNL1        0.0000
     48 C          -7.7940   -0.6329    2.2789 C.ar    1  UNL1        0.0000
     49 C          -7.3839   -1.7412    2.9994 C.ar    1  UNL1        0.0000
     50 C          -6.1904   -2.2135    2.4417 C.ar    1  UNL1        0.0000
     51 N           3.7110   -5.7357    1.4398 N.pl3   1  UNL1        0.0000
     52 C           4.4450   -6.4333    2.2789 C.3     1  UNL1        0.0000
     53 C           5.1999   -5.5240    2.9994 C.2     1  UNL1        0.0000
     54 C           5.0121   -4.2543    2.4417 C.2     1  UNL1        0.0000
     55 N           0.7578   -6.1010   -1.0502 N.ar    1  UNL1        0.0000
     56 C          -0.0853   -6.9348   -1.6428 C.ar    1  UNL1        0.0000
     57 C          -0.8504   -6.1747   -2.5114 C.ar    1  UNL1        0.0000
     58 C          -0.3890   -4.8543   -2.4521 C.ar    1  UNL1        0.0000
     59 N           3.1118    6.0817    1.4398 N.pl3   1  UNL1        0.0000
     60 C           3.3489    7.0662    2.2789 C.3     1  UNL1        0.0000
     61 C           2.1840    7.2652    2.9994 C.2     1  UNL1        0.0000
     62 C           1.1783    6.4678    2.4417 C.2     1  UNL1        0.0000
     63 N           4.9047    3.7068   -1.0502 N.ar    1  UNL1        0.0000
     64 C           6.0483    3.3936   -1.6428 C.ar    1  UNL1        0.0000
     65 C           5.7727    2.3508   -2.5114 C.ar    1  UNL1        0.0000
     66 C           4.3984    2.0902   -2.4521 C.ar    1  UNL1        0.0000
     67 H          -3.1246    2.5889   -3.0400 H       1  UNL1        0.0000
     68 H          -4.8574    4.6988   -3.1271 H       1  UNL1        0.0000
     69 H          -6.8590    4.1158   -1.4543 H       1  UNL1        0.0000
     70 H          -8.6522    0.0000    2.4202 H       1  UNL1        0.0000
     71 H          -7.8908   -2.1298    3.8600 H       1  UNL1        0.0000
     72 H          -5.6239   -3.0843    2.7417 H       1  UNL1        0.0000
     73 H           4.3261   -7.4930    2.4202 H       1  UNL1        0.0000
     74 H           5.7898   -5.7687    3.8600 H       1  UNL1        0.0000
     75 H           5.4830   -3.3283    2.7417 H       1  UNL1        0.0000
     76 H          -0.1349   -7.9980   -1.4543 H       1  UNL1        0.0000
     77 H          -1.6406   -6.5560   -3.1271 H       1  UNL1        0.0000
     78 H          -0.6797   -4.0004   -3.0400 H       1  UNL1        0.0000
     79 H           4.3261    7.4930    2.4202 H       1  UNL1        0.0000
     80 H           2.1010    7.8985    3.8600 H       1  UNL1        0.0000
     81 H           0.1409    6.4126    2.7417 H       1  UNL1        0.0000
     82 H           6.9939    3.8822   -1.4543 H       1  UNL1        0.0000
     83 H           6.4980    1.8573   -3.1271 H       1  UNL1        0.0000
     84 H           3.8044    1.4115   -3.0400 H       1  UNL1        0.0000
     85 PD          4.2334    5.0248    0.2222 Pd      1  UNL1        0.0000
     86 PD         -6.4683    1.1538    0.2222 Pd      1  UNL1        0.0000
     87 PD          2.2349   -6.1786    0.2222 Pd      1  UNL1        0.0000
88 * 5.9115 6.0912 0.4386 Du 1 UNL1 0.0000
89 * -8.2308 2.0739 0.4386 Du 1 UNL1 0.0000
90 * 2.3194 -8.1651 0.4386 Du 1 UNL1 0.0000
     91 H           3.4715   -1.8448   -2.2414 H       1  UNL1        0.0000
     92 H          -3.3334   -2.0840   -2.2414 H       1  UNL1        0.0000
     93 H          -0.1381    3.9288   -2.2414 H       1  UNL1        0.0000
@<TRIPOS>BOND
     1    68    44    1
     2    77    57    1
     3    83    65    1
     4    67    43    1
     5    78    58    1
     6    84    66    1
     7     7     3    1
     8    15    14    1
     9    13     1    1
    10    65    66   ar
    11    65    64   ar
    12    57    58   ar
    13    57    56   ar
    14    44    43    2
    15    44    45    1
    16    43    41    1
    17    58    22   ar
    18    66    36   ar
    19    91    16    1
    20    92    24    1
    21    93    31    1
    22    14    37    1
    23    14     6    1
    24    14    10    1
    25     3    38    1
    26     3     2    1
    27     3     6    1
    28     1    23    1
    29     1     2    1
    30     1    10    1
    31    11    10    1
    32     8     6    1
    33     4     2    1
    34    45    69    1
    35    45    46    1
    36    56    76    1
    37    56    55   ar
    38    64    82    1
    39    64    63   ar
    40    22    55   ar
    41    22    21    1
    42    36    63   ar
    43    36    35    1
    44    41    46    1
    45    41    30    2
    46    24    38    2
    47    24    25    1
    48    31    37    1
    49    31    39    2
    50    16    23    1
    51    16    17    2
    52    23    21    2
    53    37    35    2
    54    38    30    1
    55     2     5    1
    56     6     9    1
    57    10    12    1
    58    46    86    1
    59    63    85    1
    60    55    87    1
    61    35    34    1
    62    21    20    1
    63    30    29    1
    64    39    32    1
    65    39    33    1
    66    17    18    1
    67    17    19    1
    68    25    26    1
    69    25    27    2
    70    20    87    1
    71    20    19    1
    72    34    85    1
    73    34    33    1
    74    29    86    1
    75    29    27    1
    76    85    88    1
    77    85    59    1
    78    86    89    1
    79    86    47    1
    80    87    90    1
    81    87    51    1
    82    27    28    1
    83    19    40    2
    84    33    42    2
    85    47    28   ar
    86    47    48   ar
    87    59    42    1
    88    59    60    1
    89    51    40    1
    90    51    52    1
    91    42    62    1
    92    28    50   ar
    93    40    54    1
    94    48    70    1
    95    48    49   ar
    96    60    79    1
    97    60    61    1
    98    52    73    1
    99    52    53    1
   100    50    72    1
   101    50    49   ar
   102    54    75    1
   103    54    53    2
   104    62    81    1
   105    62    61    2
   106    49    71    1
   107    53    74    1
   108    61    80    1
